variable  T0    equal 287  #K
variable  T1    equal 290  #K
variable  Pa0    equal 14  # MPa
variable  P0    equal "v_Pa0/0.101325"  # MPa to atm

variable  dt    equal 1.0 #timestep fs

variable  Tdamp equal "v_dt*100"  #1000
variable  Pdamp equal "v_dt*1000"  #2500

variable  Lr    equal 1e5  # npt time
variable  Lt    equal 6e6  # npt time

# ----------------- Init Section -----------------
units        real
dimension	 3
boundary	 p p p
atom_style   full
pair_style  lj/cut/tip4p/long 1 2 1 1 0.1577 11.0
kspace_style pppm/tip4p 1.0e-4
bond_style   harmonic
angle_style  harmonic
pair_modify mix arithmetic  # Lorenz â€“ Berthelot mixing rules
special_bonds lj/coul 0.0 0.0 0.5
# ----------------- Atom Definition Section -----------------
read_data "system_rewrite.data"
  orthogonal box = (0 17.8313 0) to (35.6625 89.1562 35.6625)
  reading atoms ...
  7668 atoms
  scanning bonds ...
  scanning angles ...
  reading bonds ...
  4968 bonds
  reading angles ...
  2484 angles

# ----------------- Settings Section -----------------
pair_coeff   1 1  0.21084  	3.166800      # O-hydrate
pair_coeff   1 2  0.00000   0.000000      # O-H hydrate
pair_coeff   2 2  0.00000   0.000000      # H-H hydrate
pair_coeff   3 3  0.29391	3.730000	    # CT-hydrate

bond_coeff   1         1000.0    0.9572
angle_coeff  1         100.0    104.52

group water		 	type   1  2
7452 atoms in group water
group methane 		type   3
216 atoms in group methane

# ----------------- minimize Section -----------------

neighbor 2.0 bin
neigh_modify every 1 delay 0 check yes
thermo 100
thermo_style  custom step density temp press pxx pyy pzz pe ke etotal
min_style sd
minimize 1.0e-8 1.0e-8 1000 100000
PPPM initialization ...
  extracting TIP4P info from pair style
  G vector (1/distance) = 0.250273
  grid = 20 36 20
  stencil order = 5
  estimated absolute RMS force accuracy = 0.0284403
  estimated relative force accuracy = 8.56472e-05
  3d grid and FFT values/proc = 3264 500
  update every 1 steps, delay 0 steps, check yes
Step Density Temp Press Pxx Pyy Pzz PotEng KinEng TotEng
0   0.88261128            0    6610836.4    2965967.1    2520547.4     14345995    2191345.7            0    2191345.7
Averages over the last 6 of 11 rows, steps 500 to 1000:
Density Temp Press Pxx Pyy Pzz PotEng KinEng TotEng
0.882611 0 -3900.63 -4098.13 -4163.3 -3440.46 -36033.4 0 -36033.4
Loop time of 10.4711 on 32 procs for 1000 steps with 7668 atoms

Minimization stats:
  Stopping criterion = max iterations
  Energy initial, next-to-last, final =
  Force two-norm initial, final = 2.31359e+07 66.9253
  Force max component initial, final = 1.51745e+07 15.0481
  Final line search alpha, max atom move = 0.00636599 0.095796
  Iterations, force evaluations = 1000 1965

write_data $k_mini.data
write_data 1_mini.data
PPPM initialization ...
  extracting TIP4P info from pair style
  G vector (1/distance) = 0.250273
  grid = 20 36 20
  stencil order = 5
  estimated absolute RMS force accuracy = 0.0284403
  estimated relative force accuracy = 8.56472e-05
  3d grid and FFT values/proc = 3264 500

# ----------------- Constraints Section -----------------
timestep 1
fix shaketip4p 	 water   shake 0.0001 10 0 b 1 a 1
  find clusters CPU = 0.00519204 secs

# ----------------- NPT Relaxtion Section -----------------

velocity all create 287 $k4928459 rot yes dist gaussian
velocity all create 287 14928459 rot yes dist gaussian

reset_timestep 0
thermo 1000
thermo_style  custom step density temp press pxx pyy pzz pe ke etotal
dump 1 all custom 1000 traj_npt_relax_287_$k.lammpstrj id mol element type x y z
dump 1 all custom 1000 traj_npt_relax_287_1.lammpstrj id mol element type x y z
dump_modify 1 element O H C
fix   fxnpt all npt temp 287 287 100 iso 138.169257340242 138.169257340242 1000

run  100000
PPPM initialization ...
  extracting TIP4P info from pair style
  G vector (1/distance) = 0.250273
  grid = 20 36 20
  stencil order = 5
  estimated absolute RMS force accuracy = 0.0284403
  estimated relative force accuracy = 8.56472e-05
  3d grid and FFT values/proc = 3264 500
Step Density Temp Press Pxx Pyy Pzz PotEng KinEng TotEng
0   0.88261128          287   -2925.2238    -5686.675   -2470.4044    -618.5919   -37499.797    4434.0175    -33065.78
Averages over the last 51 of 101 rows, steps 50000 to 100000:
Density Temp Press Pxx Pyy Pzz PotEng KinEng TotEng
0.929053 287.094 157.844 660.885 -911.596 724.243 -34634.5 4435.46 -30199
Loop time of 752.454 on 32 procs for 100000 steps with 7668 atoms

unfix fxnpt
undump 1
write_data $k_npt_relax.data
write_data 1_npt_relax.data
PPPM initialization ...
  extracting TIP4P info from pair style
  G vector (1/distance) = 0.248195
  grid = 20 32 20
  stencil order = 5
  estimated absolute RMS force accuracy = 0.0330813
  estimated relative force accuracy = 9.96234e-05
  3d grid and FFT values/proc = 3060 400

# ----------------- NVT dissociation Section -----------------

reset_timestep 0
thermo 1000
thermo_style  custom step density temp press pxx pyy pzz pe ke etotal
dump 1 all custom 6000 traj_nvt_dissociation_290_$k.lammpstrj id mol element type x y z
dump 1 all custom 6000 traj_nvt_dissociation_290_1.lammpstrj id mol element type x y z
dump_modify 1 element O H C

fix   fxnvt all nvt temp 290 290 100

run  6000000
PPPM initialization ...
  extracting TIP4P info from pair style
  G vector (1/distance) = 0.248195
  grid = 20 32 20
  stencil order = 5
  estimated absolute RMS force accuracy = 0.0330813
  estimated relative force accuracy = 9.96234e-05
  3d grid and FFT values/proc = 3060 400
Step Density Temp Press Pxx Pyy Pzz PotEng KinEng TotEng
0   0.92982039    287.74066   -2.1934719    357.30026   -999.17853    635.29785    -34741.68    4445.4604    -30296.22
Averages over the last 832 of 1664 rows, steps 832000 to 1663000:
Density Temp Press Pxx Pyy Pzz PotEng KinEng TotEng
0.92982 290.085 264.678 769.72 -773.971 798.285 -34618.5 4481.67 -30136.8
